<routes xmlns:xsi="http://www.w3.org/2001/XMLSchema-instance" xsi:noNamespaceSchemaLocation="http://sumo.dlr.de/xsd/routes_file.xsd">
    <vType guiShape="truck" id="truck1" sigma="0.5" tau="1" vClass="truck" />
    <vType guiShape="passenger" id="car1" sigma="0.5" tau="1" />
    
    <vType guiShape="bicycle" id="bike1" sigma="0.5" tau="1" vClass="bicycle" />
    

    
    <flow begin="0.00" departLane="random" end="47.16226060737316" from="end1_junction" id="flow12c" probability="0.09605" to="junction_end2" type="car1" />
    <flow begin="0.00" departLane="random" end="47.16226060737316" from="end1_junction" id="flow13c" probability="0.11237" to="junction_end3" type="car1" />
	<flow begin="0.00" departLane="random" end="47.16226060737316" from="end1_junction" id="flow14c" probability="0.08603" to="junction_end4" type="car1" />

	<flow begin="0.00" departLane="random" end="47.16226060737316" from="end1_junction" id="flow12t" probability="0.1341" to="junction_end2" type="truck1" />
    <flow begin="0.00" departLane="random" end="47.16226060737316" from="end1_junction" id="flow13t" probability="0.15688" to="junction_end3" type="truck1" />
    <flow begin="0.00" departLane="random" end="47.16226060737316" from="end1_junction" id="flow14t" probability="0.12011" to="junction_end4" type="truck1" />

	<flow begin="0.00" departLane="random" end="47.16226060737316" from="end1_junction" id="flow12b" probability="0.09605" to="junction_end2" type="bike1" />
    <flow begin="0.00" departLane="random" end="47.16226060737316" from="end1_junction" id="flow13b" probability="0.11237" to="junction_end3" type="bike1" />
    <flow begin="0.00" departLane="random" end="47.16226060737316" from="end1_junction" id="flow14b" probability="0.08603" to="junction_end4" type="bike1" />


    <flow begin="0.00" departLane="random" end="47.16226060737316" from="end2_junction" id="flow21c" probability="0.07118" to="junction_end1" type="car1" />
    <flow begin="0.00" departLane="random" end="47.16226060737316" from="end2_junction" id="flow23c" probability="0.12645" to="junction_end3" type="car1" />
    <flow begin="0.00" departLane="random" end="47.16226060737316" from="end2_junction" id="flow24c" probability="0.09681" to="junction_end4" type="car1" />

	<flow begin="0.00" departLane="random" end="47.16226060737316" from="end2_junction" id="flow21t" probability="0.09938" to="junction_end1" type="truck1" />
    <flow begin="0.00" departLane="random" end="47.16226060737316" from="end2_junction" id="flow23t" probability="0.17655" to="junction_end3" type="truck1" />
    <flow begin="0.00" departLane="random" end="47.16226060737316" from="end2_junction" id="flow24t" probability="0.13517" to="junction_end4" type="truck1" />

	<flow begin="0.00" departLane="random" end="47.16226060737316" from="end2_junction" id="flow21b" probability="0.07118" to="junction_end1" type="bike1" />
    <flow begin="0.00" departLane="random" end="47.16226060737316" from="end2_junction" id="flow23b" probability="0.12645" to="junction_end3" type="bike1" />
    <flow begin="0.00" departLane="random" end="47.16226060737316" from="end2_junction" id="flow24b" probability="0.09681" to="junction_end4" type="bike1" />


    <flow begin="0.00" departLane="random" end="47.16226060737316" from="end3_junction" id="flow31c" probability="0.07592" to="junction_end1" type="car1" />
    <flow begin="0.00" departLane="random" end="47.16226060737316" from="end3_junction" id="flow32c" probability="0.11528" to="junction_end2" type="car1" />
    <flow begin="0.00" departLane="random" end="47.16226060737316" from="end3_junction" id="flow34c" probability="0.10325" to="junction_end4" type="car1" />

	<flow begin="0.00" departLane="random" end="47.16226060737316" from="end3_junction" id="flow31t" probability="0.10599" to="junction_end1" type="truck1" />
    <flow begin="0.00" departLane="random" end="47.16226060737316" from="end3_junction" id="flow32t" probability="0.16095" to="junction_end2" type="truck1" />
    <flow begin="0.00" departLane="random" end="47.16226060737316" from="end3_junction" id="flow34t" probability="0.14416" to="junction_end4" type="truck1" />

	<flow begin="0.00" departLane="random" end="47.16226060737316" from="end3_junction" id="flow31b" probability="0.07592" to="junction_end1" type="bike1" />
    <flow begin="0.00" departLane="random" end="47.16226060737316" from="end3_junction" id="flow32b" probability="0.11528" to="junction_end2" type="bike1" />
    <flow begin="0.00" departLane="random" end="47.16226060737316" from="end3_junction" id="flow34b" probability="0.10325" to="junction_end4" type="bike1" />


    <flow begin="0.00" departLane="random" end="47.16226060737316" from="end4_junction" id="flow41c" probability="0.06856" to="junction_end1" type="car1" />
    <flow begin="0.00" departLane="random" end="47.16226060737316" from="end4_junction" id="flow42c" probability="0.1041" to="junction_end2" type="car1" />
    <flow begin="0.00" departLane="random" end="47.16226060737316" from="end4_junction" id="flow43c" probability="0.12179" to="junction_end3" type="car1" />

	<flow begin="0.00" departLane="random" end="47.16226060737316" from="end4_junction" id="flow41t" probability="0.09572" to="junction_end1" type="truck1" />
    <flow begin="0.00" departLane="random" end="47.16226060737316" from="end4_junction" id="flow42t" probability="0.14534" to="junction_end2" type="truck1" />
    <flow begin="0.00" departLane="random" end="47.16226060737316" from="end4_junction" id="flow43t" probability="0.17004" to="junction_end3" type="truck1" />

	<flow begin="0.00" departLane="random" end="47.16226060737316" from="end4_junction" id="flow41b" probability="0.06856" to="junction_end1" type="bike1" />
    <flow begin="0.00" departLane="random" end="47.16226060737316" from="end4_junction" id="flow42b" probability="0.1041" to="junction_end2" type="bike1" />
    <flow begin="0.00" departLane="random" end="47.16226060737316" from="end4_junction" id="flow43b" probability="0.12179" to="junction_end3" type="bike1" />



</routes>