<routes xmlns:xsi="http://www.w3.org/2001/XMLSchema-instance" xsi:noNamespaceSchemaLocation="http://sumo.dlr.de/xsd/routes_file.xsd">
    <vType guiShape="truck" id="truck1" sigma="0.5" tau="1" vClass="truck" />
    <vType guiShape="passenger" id="car1" sigma="0.5" tau="1" />
    
    <vType guiShape="bicycle" id="bike1" sigma="0.5" tau="1" vClass="bicycle" />
    

    
    <flow begin="0.00" departLane="random" end="231.03027070093296" from="end1_junction" id="flow12c" probability="0.08068" to="junction_end2" type="car1" />
    <flow begin="0.00" departLane="random" end="231.03027070093296" from="end1_junction" id="flow13c" probability="0.0729" to="junction_end3" type="car1" />
	<flow begin="0.00" departLane="random" end="231.03027070093296" from="end1_junction" id="flow14c" probability="0.13629" to="junction_end4" type="car1" />

	<flow begin="0.00" departLane="random" end="231.03027070093296" from="end1_junction" id="flow12t" probability="0.11697" to="junction_end2" type="truck1" />
    <flow begin="0.00" departLane="random" end="231.03027070093296" from="end1_junction" id="flow13t" probability="0.10569" to="junction_end3" type="truck1" />
    <flow begin="0.00" departLane="random" end="231.03027070093296" from="end1_junction" id="flow14t" probability="0.19761" to="junction_end4" type="truck1" />

	<flow begin="0.00" departLane="random" end="231.03027070093296" from="end1_junction" id="flow12b" probability="0.08068" to="junction_end2" type="bike1" />
    <flow begin="0.00" departLane="random" end="231.03027070093296" from="end1_junction" id="flow13b" probability="0.0729" to="junction_end3" type="bike1" />
    <flow begin="0.00" departLane="random" end="231.03027070093296" from="end1_junction" id="flow14b" probability="0.13629" to="junction_end4" type="bike1" />


    <flow begin="0.00" departLane="random" end="231.03027070093296" from="end2_junction" id="flow21c" probability="0.10779" to="junction_end1" type="car1" />
    <flow begin="0.00" departLane="random" end="231.03027070093296" from="end2_junction" id="flow23c" probability="0.06345" to="junction_end3" type="car1" />
    <flow begin="0.00" departLane="random" end="231.03027070093296" from="end2_junction" id="flow24c" probability="0.11863" to="junction_end4" type="car1" />

	<flow begin="0.00" departLane="random" end="231.03027070093296" from="end2_junction" id="flow21t" probability="0.15628" to="junction_end1" type="truck1" />
    <flow begin="0.00" departLane="random" end="231.03027070093296" from="end2_junction" id="flow23t" probability="0.09199" to="junction_end3" type="truck1" />
    <flow begin="0.00" departLane="random" end="231.03027070093296" from="end2_junction" id="flow24t" probability="0.172" to="junction_end4" type="truck1" />

	<flow begin="0.00" departLane="random" end="231.03027070093296" from="end2_junction" id="flow21b" probability="0.10779" to="junction_end1" type="bike1" />
    <flow begin="0.00" departLane="random" end="231.03027070093296" from="end2_junction" id="flow23b" probability="0.06345" to="junction_end3" type="bike1" />
    <flow begin="0.00" departLane="random" end="231.03027070093296" from="end2_junction" id="flow24b" probability="0.11863" to="junction_end4" type="bike1" />


    <flow begin="0.00" departLane="random" end="231.03027070093296" from="end3_junction" id="flow31c" probability="0.10533" to="junction_end1" type="car1" />
    <flow begin="0.00" departLane="random" end="231.03027070093296" from="end3_junction" id="flow32c" probability="0.06862" to="junction_end2" type="car1" />
    <flow begin="0.00" departLane="random" end="231.03027070093296" from="end3_junction" id="flow34c" probability="0.11592" to="junction_end4" type="car1" />

	<flow begin="0.00" departLane="random" end="231.03027070093296" from="end3_junction" id="flow31t" probability="0.15271" to="junction_end1" type="truck1" />
    <flow begin="0.00" departLane="random" end="231.03027070093296" from="end3_junction" id="flow32t" probability="0.09949" to="junction_end2" type="truck1" />
    <flow begin="0.00" departLane="random" end="231.03027070093296" from="end3_junction" id="flow34t" probability="0.16807" to="junction_end4" type="truck1" />

	<flow begin="0.00" departLane="random" end="231.03027070093296" from="end3_junction" id="flow31b" probability="0.10533" to="junction_end1" type="bike1" />
    <flow begin="0.00" departLane="random" end="231.03027070093296" from="end3_junction" id="flow32b" probability="0.06862" to="junction_end2" type="bike1" />
    <flow begin="0.00" departLane="random" end="231.03027070093296" from="end3_junction" id="flow34b" probability="0.11592" to="junction_end4" type="bike1" />


    <flow begin="0.00" departLane="random" end="231.03027070093296" from="end4_junction" id="flow41c" probability="0.1294" to="junction_end1" type="car1" />
    <flow begin="0.00" departLane="random" end="231.03027070093296" from="end4_junction" id="flow42c" probability="0.0843" to="junction_end2" type="car1" />
    <flow begin="0.00" departLane="random" end="231.03027070093296" from="end4_junction" id="flow43c" probability="0.07617" to="junction_end3" type="car1" />

	<flow begin="0.00" departLane="random" end="231.03027070093296" from="end4_junction" id="flow41t" probability="0.18761" to="junction_end1" type="truck1" />
    <flow begin="0.00" departLane="random" end="231.03027070093296" from="end4_junction" id="flow42t" probability="0.12223" to="junction_end2" type="truck1" />
    <flow begin="0.00" departLane="random" end="231.03027070093296" from="end4_junction" id="flow43t" probability="0.11044" to="junction_end3" type="truck1" />

	<flow begin="0.00" departLane="random" end="231.03027070093296" from="end4_junction" id="flow41b" probability="0.1294" to="junction_end1" type="bike1" />
    <flow begin="0.00" departLane="random" end="231.03027070093296" from="end4_junction" id="flow42b" probability="0.0843" to="junction_end2" type="bike1" />
    <flow begin="0.00" departLane="random" end="231.03027070093296" from="end4_junction" id="flow43b" probability="0.07617" to="junction_end3" type="bike1" />



</routes>