<?xml version="1.0" encoding="UTF-8"?>

<!-- generated on 2022-01-15 14:22:42 by Eclipse SUMO netedit Version 1.11.0
-->

<routes xmlns:xsi="http://www.w3.org/2001/XMLSchema-instance" xsi:noNamespaceSchemaLocation="http://sumo.dlr.de/xsd/routes_file.xsd">
    <vType id="car" guiShape="passenger" accel="2.6" decel="4.5" sigma="0.5" length="5" maxSpeed="70"/>
    <!--<vType id="truck" accel="2.6" decel="4.5" sigma="0.5" length="10" maxSpeed="70"/>-->
    <vType id = "truck1" vClass="truck" guiShape="truck" />
    <vType id="bike" guiShape="bicycle" accel="0.5" decel="4.5" sigma="0.5" length="1" maxSpeed="10"/>
    <flow id="flow_0" begin="0.00"  departLane="random" from="end1_junction" to="junction_end3" end="3600.00" probability="0.50"/>
    <flow id="flow_1" begin="0.00" departLane="random" departSpeed="30.00" from="end1_junction" to="junction_end2" end="3600.00" vehsPerHour="1800.00"/>
    <flow id="flow_2" begin="0.00" departLane="random" type="truck1" from="end1_junction" to="junction_end3" end="3600.00" vehsPerHour="1800.00"/>
    <flow id="flow_3" type="car" departLane="random" begin="0.00" from="end4_junction" to="junction_end2" end="3600.00" probability="0.50"/>
</routes>
